Version 4
SHEET 1 1912 756
WIRE 160 16 80 16
WIRE 272 16 240 16
WIRE 80 64 80 16
WIRE 272 64 272 16
WIRE 688 64 464 64
WIRE 1200 64 1184 64
WIRE 1296 64 1280 64
WIRE 1328 64 1296 64
WIRE 1424 64 1408 64
WIRE 1184 96 1184 64
WIRE 592 112 576 112
WIRE 688 112 688 64
WIRE 688 112 656 112
WIRE 720 112 688 112
WIRE 816 112 784 112
WIRE 464 128 464 64
WIRE 1296 160 1296 64
WIRE 1328 160 1296 160
WIRE 1424 176 1424 64
WIRE 1424 176 1392 176
WIRE 80 192 80 144
WIRE 160 192 80 192
WIRE 272 192 272 144
WIRE 272 192 160 192
WIRE 576 208 576 112
WIRE 592 208 576 208
WIRE 688 208 656 208
WIRE 720 208 688 208
WIRE 816 208 816 112
WIRE 816 208 784 208
WIRE 896 208 816 208
WIRE 960 208 896 208
WIRE 976 208 960 208
WIRE 896 240 896 208
WIRE 976 240 976 208
WIRE 464 256 464 208
WIRE 688 256 688 208
WIRE 688 256 464 256
WIRE 576 336 576 208
WIRE 896 336 896 304
WIRE 896 336 576 336
WIRE 976 336 976 304
WIRE 976 336 896 336
WIRE 896 352 896 336
FLAG 160 192 0
FLAG 896 352 0
FLAG 1184 96 0
FLAG 960 208 21V
FLAG 1360 208 0
FLAG 1360 144 21V
SYMBOL res 256 0 R90
WINDOW 0 0 56 VBottom 2
WINDOW 3 32 56 VTop 2
SYMATTR InstName R1
SYMATTR Value 0.5
SYMBOL voltage 80 48 R0
WINDOW 0 -32 56 VBottom 2
WINDOW 3 32 56 VTop 2
WINDOW 123 0 0 Left 0
WINDOW 39 0 0 Left 0
SYMATTR InstName V1
SYMATTR Value SINE(0 120 60)
SYMBOL ind2 256 48 R0
SYMATTR InstName L1
SYMATTR Value 10
SYMATTR Type ind
SYMBOL ind2 480 112 M0
SYMATTR InstName L2
SYMATTR Value 312.5m
SYMATTR Type ind
SYMBOL diode 592 128 R270
WINDOW 0 32 32 VTop 2
WINDOW 3 0 32 VBottom 2
SYMATTR InstName D1
SYMATTR Value 1N4004
SYMBOL diode 720 128 R270
WINDOW 0 32 32 VTop 2
WINDOW 3 0 32 VBottom 2
SYMATTR InstName D2
SYMATTR Value 1N4004
SYMBOL diode 592 224 R270
WINDOW 0 32 32 VTop 2
WINDOW 3 0 32 VBottom 2
SYMATTR InstName D3
SYMATTR Value 1N4004
SYMBOL diode 720 224 R270
WINDOW 0 32 32 VTop 2
WINDOW 3 0 32 VBottom 2
SYMATTR InstName D4
SYMATTR Value 1N4004
SYMBOL cap 880 240 R0
SYMATTR InstName C2
SYMATTR Value 0.1µ
SYMBOL cap 960 240 R0
SYMATTR InstName C6
SYMATTR Value 20000µ
SYMBOL nmos 1440 384 R0
SYMATTR InstName M1
SYMBOL OpAmps\\UniversalOpAmp3 1360 176 R0
SYMATTR InstName U1
SYMBOL res 1424 48 R90
WINDOW 0 0 56 VBottom 2
WINDOW 3 32 56 VTop 2
SYMATTR InstName R2
SYMATTR Value 45.3k
SYMBOL res 1296 48 R90
WINDOW 0 0 56 VBottom 2
WINDOW 3 32 56 VTop 2
SYMATTR InstName R3
SYMATTR Value 10k
TEXT 96 -72 Left 2 !.tran 0 5.1 5
TEXT 352 -80 Left 2 !K1 L1 L2 L3 1
TEXT 344 -104 Left 2 !.model 1N4004 D(Is=76.9n Rs=.02 N=1.45 Cjo=30p M=.333 Tt=5u)
