Version 4
SHEET 1 1556 680
WIRE 656 16 464 16
WIRE 224 80 144 80
WIRE 336 80 304 80
WIRE 544 80 512 80
WIRE 656 80 656 16
WIRE 656 80 608 80
WIRE 704 80 656 80
WIRE 800 80 768 80
WIRE 144 128 144 80
WIRE 336 128 336 80
WIRE 464 128 464 16
WIRE 512 224 512 80
WIRE 544 224 512 224
WIRE 656 224 608 224
WIRE 704 224 656 224
WIRE 800 224 800 80
WIRE 800 224 768 224
WIRE 816 224 800 224
WIRE 912 224 896 224
WIRE 960 224 912 224
WIRE 1040 224 960 224
WIRE 1344 224 1296 224
WIRE 1424 224 1344 224
WIRE 1488 224 1424 224
WIRE 960 240 960 224
WIRE 1344 240 1344 224
WIRE 144 256 144 208
WIRE 224 256 144 256
WIRE 336 256 336 208
WIRE 336 256 224 256
WIRE 800 288 800 224
WIRE 912 288 912 224
WIRE 1424 288 1424 224
WIRE 1488 288 1488 224
WIRE 464 304 464 208
WIRE 656 304 656 224
WIRE 656 304 464 304
WIRE 960 336 960 320
WIRE 1168 336 1168 320
WIRE 1280 336 1168 336
WIRE 1344 336 1344 320
WIRE 1344 336 1280 336
WIRE 1280 352 1280 336
WIRE 512 432 512 224
WIRE 800 432 800 352
WIRE 800 432 512 432
WIRE 896 432 800 432
WIRE 912 432 912 352
WIRE 912 432 896 432
WIRE 960 432 960 400
WIRE 960 432 912 432
WIRE 1168 432 1168 416
WIRE 1168 432 960 432
WIRE 1280 432 1280 416
WIRE 1280 432 1168 432
WIRE 1424 432 1424 352
WIRE 1424 432 1280 432
WIRE 1488 432 1488 368
WIRE 1488 432 1424 432
WIRE 896 480 896 432
FLAG 224 256 0
FLAG 896 480 0
SYMBOL res 320 64 R90
WINDOW 0 0 56 VBottom 2
WINDOW 3 32 56 VTop 2
SYMATTR InstName R1
SYMATTR Value 0.5
SYMBOL voltage 144 112 R0
WINDOW 0 -32 56 VBottom 2
WINDOW 3 32 56 VTop 2
WINDOW 123 0 0 Left 0
WINDOW 39 0 0 Left 0
SYMATTR InstName V1
SYMATTR Value SINE(0 120 60)
SYMBOL ind2 320 112 R0
SYMATTR InstName L1
SYMATTR Value 10
SYMATTR Type ind
SYMBOL ind2 480 112 M0
SYMATTR InstName L2
SYMATTR Value 177m
SYMATTR Type ind
SYMBOL diode 544 96 R270
WINDOW 0 32 32 VTop 2
WINDOW 3 0 32 VBottom 2
SYMATTR InstName D1
SYMATTR Value 1N4004
SYMBOL diode 704 96 R270
WINDOW 0 32 32 VTop 2
WINDOW 3 0 32 VBottom 2
SYMATTR InstName D2
SYMATTR Value 1N4004
SYMBOL diode 544 240 R270
WINDOW 0 32 32 VTop 2
WINDOW 3 0 32 VBottom 2
SYMATTR InstName D3
SYMATTR Value 1N4004
SYMBOL diode 704 240 R270
WINDOW 0 32 32 VTop 2
WINDOW 3 0 32 VBottom 2
SYMATTR InstName D4
SYMATTR Value 1N4004
SYMBOL cap 784 288 R0
SYMATTR InstName C2
SYMATTR Value 20000µ
SYMBOL PowerProducts\\LT1085 1168 224 R0
WINDOW 3 -48 37 Left 2
SYMATTR InstName U1
SYMBOL res 1328 224 R0
SYMATTR InstName R2
SYMATTR Value 120
SYMBOL res 1152 320 R0
SYMATTR InstName R3
SYMATTR Value 1200
SYMBOL cap 1408 288 R0
SYMATTR InstName C3
SYMATTR Value 10µ
SYMBOL res 1472 272 R0
SYMATTR InstName R4
SYMATTR Value 20
SYMBOL ind 912 208 R90
WINDOW 0 5 56 VBottom 2
WINDOW 3 32 56 VTop 2
SYMATTR InstName L3
SYMATTR Value 10m
SYMBOL cap 944 336 R0
SYMATTR InstName C1
SYMATTR Value 100µ
SYMBOL cap 1264 352 R0
SYMATTR InstName C4
SYMATTR Value 10µ
SYMBOL res 944 224 R0
SYMATTR InstName R5
SYMATTR Value 1
SYMBOL cap 896 288 R0
SYMATTR InstName C5
SYMATTR Value 1000µ
TEXT 78 262 Left 2 !.tran 0 2.1 2
TEXT 352 -40 Left 2 !K1 L1 L2 1
TEXT 352 -72 Left 2 !.model 1N4004 D(Is=76.9n Rs=.02 N=1.45 Cjo=30p M=.333 Tt=5u)
