Version 4.1
SHEET 1 2436 756
WIRE 160 16 80 16
WIRE 272 16 240 16
WIRE 896 48 816 48
WIRE 976 48 896 48
WIRE 1136 48 976 48
WIRE 1184 48 1136 48
WIRE 1568 48 1280 48
WIRE 1648 48 1568 48
WIRE 1680 48 1648 48
WIRE 1808 48 1776 48
WIRE 2048 48 1808 48
WIRE 2256 48 2048 48
WIRE 80 64 80 16
WIRE 272 64 272 16
WIRE 688 64 464 64
WIRE 1808 80 1808 48
WIRE 1136 96 1136 48
WIRE 1568 96 1568 48
WIRE 592 112 576 112
WIRE 688 112 688 64
WIRE 688 112 656 112
WIRE 720 112 688 112
WIRE 816 112 816 48
WIRE 816 112 784 112
WIRE 464 128 464 64
WIRE 896 160 896 48
WIRE 976 160 976 48
WIRE 1760 160 1600 160
WIRE 2048 160 2048 48
WIRE 1648 176 1648 48
WIRE 80 192 80 144
WIRE 160 192 80 192
WIRE 272 192 272 144
WIRE 272 192 160 192
WIRE 1136 192 1136 176
WIRE 1232 192 1232 112
WIRE 1232 192 1136 192
WIRE 1600 192 1600 160
WIRE 1616 192 1600 192
WIRE 1760 192 1760 160
WIRE 1808 192 1808 160
WIRE 1808 192 1760 192
WIRE 576 208 576 112
WIRE 592 208 576 208
WIRE 688 208 656 208
WIRE 720 208 688 208
WIRE 816 208 816 112
WIRE 816 208 784 208
WIRE 1728 208 1728 112
WIRE 1728 208 1680 208
WIRE 1136 224 1136 192
WIRE 1568 224 1568 176
WIRE 1616 224 1568 224
WIRE 1808 224 1808 192
WIRE 1568 240 1568 224
WIRE 464 256 464 208
WIRE 688 256 688 208
WIRE 688 256 464 256
WIRE 576 336 576 208
WIRE 896 336 896 224
WIRE 896 336 576 336
WIRE 976 336 976 224
WIRE 976 336 896 336
WIRE 1136 336 1136 288
WIRE 1136 336 976 336
WIRE 1568 336 1568 304
WIRE 1568 336 1136 336
WIRE 1648 336 1648 240
WIRE 1648 336 1568 336
WIRE 1808 336 1808 304
WIRE 1808 336 1648 336
WIRE 2048 336 2048 240
WIRE 2048 336 1808 336
WIRE 2256 336 2048 336
WIRE 896 352 896 336
FLAG 160 192 0
FLAG 896 352 0
SYMBOL res 256 0 R90
WINDOW 0 0 56 VBottom 2
WINDOW 3 32 56 VTop 2
SYMATTR InstName R1
SYMATTR Value 0.5
SYMBOL voltage 80 48 R0
WINDOW 0 -32 56 VBottom 2
WINDOW 3 32 56 VTop 2
WINDOW 123 0 0 Left 0
WINDOW 39 0 0 Left 0
SYMATTR InstName V1
SYMATTR Value SINE(0 167.7 60)
SYMBOL ind2 256 48 R0
SYMATTR InstName L1
SYMATTR Value 1
SYMATTR Type ind
SYMBOL ind2 480 112 M0
SYMATTR InstName L2
SYMATTR Value 0.015625
SYMATTR Type ind
SYMBOL diode 592 128 R270
WINDOW 0 32 32 VTop 2
WINDOW 3 0 32 VBottom 2
SYMATTR InstName D1
SYMATTR Value 1N4004
SYMBOL diode 720 128 R270
WINDOW 0 32 32 VTop 2
WINDOW 3 0 32 VBottom 2
SYMATTR InstName D2
SYMATTR Value 1N4004
SYMBOL diode 592 224 R270
WINDOW 0 32 32 VTop 2
WINDOW 3 0 32 VBottom 2
SYMATTR InstName D3
SYMATTR Value 1N4004
SYMBOL diode 720 224 R270
WINDOW 0 32 32 VTop 2
WINDOW 3 0 32 VBottom 2
SYMATTR InstName D4
SYMATTR Value 1N4004
SYMBOL cap 880 160 R0
SYMATTR InstName C2
SYMATTR Value 0.1µ
SYMBOL cap 960 160 R0
SYMATTR InstName C6
SYMATTR Value 12000µ
SYMBOL diode 1584 304 R180
WINDOW 0 24 64 Left 2
WINDOW 3 24 0 Left 2
SYMATTR InstName D5
SYMATTR Value 1N750
SYMBOL res 1552 80 R0
SYMATTR InstName R2
SYMATTR Value 100
SYMBOL res 1792 64 R0
SYMATTR InstName R3
SYMATTR Value 100k
SYMBOL res 1792 208 R0
SYMATTR InstName R4
SYMATTR Value 10k
SYMBOL npn 1680 112 R270
SYMATTR InstName Q1
SYMATTR Value 2SCR582D3
SYMBOL res 2032 144 R0
SYMATTR InstName R7
SYMATTR Value 3
SYMBOL res 1120 80 R0
SYMATTR InstName R5
SYMATTR Value 50
SYMBOL cap 1120 224 R0
SYMATTR InstName C1
SYMATTR Value 470µ
SYMBOL npn 1184 112 R270
SYMATTR InstName Q2
SYMATTR Value 2N3055
SYMBOL OpAmps\\LT6016 1648 208 R0
SYMATTR InstName U1
TEXT 96 -72 Left 2 !.tran 0 5.05 5
TEXT 352 -80 Left 2 !K1 L1 L2 1
TEXT 344 -104 Left 2 !.model 1N4004 D(Is=76.9n Rs=.02 N=1.45 Cjo=30p M=.333 Tt=5u)
